<routes>
		<vType id="typeWE" accel="0.8" decel="4.5" sigma="0.5" length="5" minGap="2.5" maxSpeed="20" guiShape="passenger"/>
		<vType id="typeNS" accel="0.8" decel="4.5" sigma="0.5" length="5" minGap="2.5" maxSpeed="20" guiShape="passenger"/>

		<route id="right" edges="51o 1i 2o 52i" />
		<route id="left" edges="52o 2i 1o 51i" />
		<route id="down" edges="54o 4i 3o 53i" />
	<vehicle id="right_0" type="typeWE" route="right" depart="0" />
	<vehicle id="down_1" type="typeNS" route="down" depart="0" color="1,0,0"/>
	<vehicle id="down_2" type="typeNS" route="down" depart="3" color="1,0,0"/>
	<vehicle id="left_3" type="typeWE" route="left" depart="4" />
	<vehicle id="right_4" type="typeWE" route="right" depart="5" />
	<vehicle id="right_5" type="typeWE" route="right" depart="9" />
	<vehicle id="down_6" type="typeNS" route="down" depart="10" color="1,0,0"/>
	<vehicle id="down_7" type="typeNS" route="down" depart="12" color="1,0,0"/>
	<vehicle id="left_8" type="typeWE" route="left" depart="13" />
	<vehicle id="down_9" type="typeNS" route="down" depart="13" color="1,0,0"/>
	<vehicle id="left_10" type="typeWE" route="left" depart="15" />
	<vehicle id="right_11" type="typeWE" route="right" depart="18" />
	<vehicle id="down_12" type="typeNS" route="down" depart="20" color="1,0,0"/>
	<vehicle id="left_13" type="typeWE" route="left" depart="21" />
	<vehicle id="down_14" type="typeNS" route="down" depart="21" color="1,0,0"/>
	<vehicle id="left_15" type="typeWE" route="left" depart="23" />
	<vehicle id="right_16" type="typeWE" route="right" depart="24" />
	<vehicle id="left_17" type="typeWE" route="left" depart="24" />
	<vehicle id="left_18" type="typeWE" route="left" depart="25" />
	<vehicle id="left_19" type="typeWE" route="left" depart="26" />
	<vehicle id="down_20" type="typeNS" route="down" depart="26" color="1,0,0"/>
	<vehicle id="left_21" type="typeWE" route="left" depart="28" />
	<vehicle id="right_22" type="typeWE" route="right" depart="29" />
	<vehicle id="down_23" type="typeNS" route="down" depart="29" color="1,0,0"/>
	<vehicle id="down_24" type="typeNS" route="down" depart="30" color="1,0,0"/>
	<vehicle id="right_25" type="typeWE" route="right" depart="31" />
	<vehicle id="left_26" type="typeWE" route="left" depart="32" />
	<vehicle id="right_27" type="typeWE" route="right" depart="33" />
	<vehicle id="left_28" type="typeWE" route="left" depart="33" />
	<vehicle id="down_29" type="typeNS" route="down" depart="33" color="1,0,0"/>
	<vehicle id="right_30" type="typeWE" route="right" depart="34" />
	<vehicle id="left_31" type="typeWE" route="left" depart="34" />
	<vehicle id="down_32" type="typeNS" route="down" depart="34" color="1,0,0"/>
	<vehicle id="right_33" type="typeWE" route="right" depart="35" />
	<vehicle id="left_34" type="typeWE" route="left" depart="35" />
	<vehicle id="right_35" type="typeWE" route="right" depart="37" />
	<vehicle id="down_36" type="typeNS" route="down" depart="37" color="1,0,0"/>
	<vehicle id="right_37" type="typeWE" route="right" depart="39" />
	<vehicle id="down_38" type="typeNS" route="down" depart="39" color="1,0,0"/>
	<vehicle id="down_39" type="typeNS" route="down" depart="40" color="1,0,0"/>
	<vehicle id="right_40" type="typeWE" route="right" depart="41" />
	<vehicle id="left_41" type="typeWE" route="left" depart="41" />
	<vehicle id="left_42" type="typeWE" route="left" depart="43" />
	<vehicle id="down_43" type="typeNS" route="down" depart="43" color="1,0,0"/>
	<vehicle id="right_44" type="typeWE" route="right" depart="47" />
	<vehicle id="left_45" type="typeWE" route="left" depart="47" />
	<vehicle id="down_46" type="typeNS" route="down" depart="47" color="1,0,0"/>
	<vehicle id="down_47" type="typeNS" route="down" depart="48" color="1,0,0"/>
	<vehicle id="right_48" type="typeWE" route="right" depart="51" />
	<vehicle id="right_49" type="typeWE" route="right" depart="59" />
	<vehicle id="down_50" type="typeNS" route="down" depart="59" color="1,0,0"/>
	<vehicle id="down_51" type="typeNS" route="down" depart="61" color="1,0,0"/>
	<vehicle id="down_52" type="typeNS" route="down" depart="63" color="1,0,0"/>
	<vehicle id="left_53" type="typeWE" route="left" depart="64" />
	<vehicle id="down_54" type="typeNS" route="down" depart="64" color="1,0,0"/>
	<vehicle id="left_55" type="typeWE" route="left" depart="66" />
	<vehicle id="right_56" type="typeWE" route="right" depart="67" />
	<vehicle id="down_57" type="typeNS" route="down" depart="68" color="1,0,0"/>
	<vehicle id="right_58" type="typeWE" route="right" depart="69" />
	<vehicle id="right_59" type="typeWE" route="right" depart="70" />
	<vehicle id="left_60" type="typeWE" route="left" depart="74" />
	<vehicle id="right_61" type="typeWE" route="right" depart="76" />
	<vehicle id="left_62" type="typeWE" route="left" depart="76" />
	<vehicle id="down_63" type="typeNS" route="down" depart="76" color="1,0,0"/>
	<vehicle id="down_64" type="typeNS" route="down" depart="77" color="1,0,0"/>
	<vehicle id="left_65" type="typeWE" route="left" depart="78" />
	<vehicle id="right_66" type="typeWE" route="right" depart="79" />
	<vehicle id="left_67" type="typeWE" route="left" depart="80" />
	<vehicle id="down_68" type="typeNS" route="down" depart="80" color="1,0,0"/>
	<vehicle id="right_69" type="typeWE" route="right" depart="81" />
	<vehicle id="left_70" type="typeWE" route="left" depart="82" />
	<vehicle id="down_71" type="typeNS" route="down" depart="82" color="1,0,0"/>
	<vehicle id="right_72" type="typeWE" route="right" depart="84" />
	<vehicle id="down_73" type="typeNS" route="down" depart="84" color="1,0,0"/>
	<vehicle id="down_74" type="typeNS" route="down" depart="85" color="1,0,0"/>
	<vehicle id="right_75" type="typeWE" route="right" depart="86" />
	<vehicle id="right_76" type="typeWE" route="right" depart="87" />
	<vehicle id="left_77" type="typeWE" route="left" depart="87" />
	<vehicle id="down_78" type="typeNS" route="down" depart="88" color="1,0,0"/>
	<vehicle id="left_79" type="typeWE" route="left" depart="90" />
	<vehicle id="down_80" type="typeNS" route="down" depart="90" color="1,0,0"/>
	<vehicle id="down_81" type="typeNS" route="down" depart="91" color="1,0,0"/>
	<vehicle id="right_82" type="typeWE" route="right" depart="93" />
	<vehicle id="left_83" type="typeWE" route="left" depart="93" />
	<vehicle id="down_84" type="typeNS" route="down" depart="94" color="1,0,0"/>
	<vehicle id="down_85" type="typeNS" route="down" depart="95" color="1,0,0"/>
	<vehicle id="left_86" type="typeWE" route="left" depart="101" />
	<vehicle id="down_87" type="typeNS" route="down" depart="101" color="1,0,0"/>
	<vehicle id="left_88" type="typeWE" route="left" depart="102" />
	<vehicle id="down_89" type="typeNS" route="down" depart="102" color="1,0,0"/>
	<vehicle id="right_90" type="typeWE" route="right" depart="104" />
	<vehicle id="right_91" type="typeWE" route="right" depart="105" />
	<vehicle id="down_92" type="typeNS" route="down" depart="105" color="1,0,0"/>
	<vehicle id="down_93" type="typeNS" route="down" depart="107" color="1,0,0"/>
	<vehicle id="right_94" type="typeWE" route="right" depart="108" />
	<vehicle id="left_95" type="typeWE" route="left" depart="110" />
	<vehicle id="down_96" type="typeNS" route="down" depart="110" color="1,0,0"/>
	<vehicle id="left_97" type="typeWE" route="left" depart="112" />
	<vehicle id="left_98" type="typeWE" route="left" depart="113" />
	<vehicle id="down_99" type="typeNS" route="down" depart="113" color="1,0,0"/>
	<vehicle id="left_100" type="typeWE" route="left" depart="114" />
	<vehicle id="down_101" type="typeNS" route="down" depart="114" color="1,0,0"/>
	<vehicle id="down_102" type="typeNS" route="down" depart="116" color="1,0,0"/>
	<vehicle id="right_103" type="typeWE" route="right" depart="117" />
	<vehicle id="down_104" type="typeNS" route="down" depart="117" color="1,0,0"/>
	<vehicle id="left_105" type="typeWE" route="left" depart="118" />
	<vehicle id="down_106" type="typeNS" route="down" depart="121" color="1,0,0"/>
	<vehicle id="left_107" type="typeWE" route="left" depart="122" />
	<vehicle id="down_108" type="typeNS" route="down" depart="122" color="1,0,0"/>
	<vehicle id="right_109" type="typeWE" route="right" depart="124" />
	<vehicle id="left_110" type="typeWE" route="left" depart="125" />
	<vehicle id="down_111" type="typeNS" route="down" depart="125" color="1,0,0"/>
	<vehicle id="left_112" type="typeWE" route="left" depart="126" />
	<vehicle id="down_113" type="typeNS" route="down" depart="126" color="1,0,0"/>
	<vehicle id="right_114" type="typeWE" route="right" depart="128" />
	<vehicle id="down_115" type="typeNS" route="down" depart="128" color="1,0,0"/>
	<vehicle id="down_116" type="typeNS" route="down" depart="131" color="1,0,0"/>
	<vehicle id="right_117" type="typeWE" route="right" depart="133" />
	<vehicle id="down_118" type="typeNS" route="down" depart="136" color="1,0,0"/>
	<vehicle id="down_119" type="typeNS" route="down" depart="137" color="1,0,0"/>
	<vehicle id="right_120" type="typeWE" route="right" depart="139" />
	<vehicle id="right_121" type="typeWE" route="right" depart="141" />
	<vehicle id="down_122" type="typeNS" route="down" depart="141" color="1,0,0"/>
	<vehicle id="right_123" type="typeWE" route="right" depart="143" />
	<vehicle id="left_124" type="typeWE" route="left" depart="143" />
	<vehicle id="down_125" type="typeNS" route="down" depart="144" color="1,0,0"/>
	<vehicle id="down_126" type="typeNS" route="down" depart="145" color="1,0,0"/>
	<vehicle id="down_127" type="typeNS" route="down" depart="146" color="1,0,0"/>
	<vehicle id="right_128" type="typeWE" route="right" depart="148" />
	<vehicle id="right_129" type="typeWE" route="right" depart="150" />
	<vehicle id="down_130" type="typeNS" route="down" depart="151" color="1,0,0"/>
	<vehicle id="down_131" type="typeNS" route="down" depart="154" color="1,0,0"/>
	<vehicle id="down_132" type="typeNS" route="down" depart="155" color="1,0,0"/>
	<vehicle id="right_133" type="typeWE" route="right" depart="156" />
	<vehicle id="down_134" type="typeNS" route="down" depart="157" color="1,0,0"/>
	<vehicle id="left_135" type="typeWE" route="left" depart="158" />
	<vehicle id="right_136" type="typeWE" route="right" depart="159" />
	<vehicle id="right_137" type="typeWE" route="right" depart="160" />
	<vehicle id="left_138" type="typeWE" route="left" depart="160" />
	<vehicle id="down_139" type="typeNS" route="down" depart="161" color="1,0,0"/>
	<vehicle id="left_140" type="typeWE" route="left" depart="162" />
	<vehicle id="left_141" type="typeWE" route="left" depart="163" />
	<vehicle id="down_142" type="typeNS" route="down" depart="166" color="1,0,0"/>
	<vehicle id="down_143" type="typeNS" route="down" depart="167" color="1,0,0"/>
	<vehicle id="left_144" type="typeWE" route="left" depart="168" />
	<vehicle id="down_145" type="typeNS" route="down" depart="169" color="1,0,0"/>
	<vehicle id="right_146" type="typeWE" route="right" depart="171" />
	<vehicle id="right_147" type="typeWE" route="right" depart="174" />
	<vehicle id="down_148" type="typeNS" route="down" depart="174" color="1,0,0"/>
	<vehicle id="down_149" type="typeNS" route="down" depart="175" color="1,0,0"/>
	<vehicle id="down_150" type="typeNS" route="down" depart="177" color="1,0,0"/>
	<vehicle id="left_151" type="typeWE" route="left" depart="178" />
	<vehicle id="down_152" type="typeNS" route="down" depart="178" color="1,0,0"/>
	<vehicle id="down_153" type="typeNS" route="down" depart="180" color="1,0,0"/>
	<vehicle id="left_154" type="typeWE" route="left" depart="182" />
	<vehicle id="down_155" type="typeNS" route="down" depart="182" color="1,0,0"/>
	<vehicle id="down_156" type="typeNS" route="down" depart="184" color="1,0,0"/>
	<vehicle id="down_157" type="typeNS" route="down" depart="188" color="1,0,0"/>
	<vehicle id="down_158" type="typeNS" route="down" depart="190" color="1,0,0"/>
	<vehicle id="down_159" type="typeNS" route="down" depart="195" color="1,0,0"/>
	<vehicle id="down_160" type="typeNS" route="down" depart="196" color="1,0,0"/>
	<vehicle id="right_161" type="typeWE" route="right" depart="197" />
	<vehicle id="down_162" type="typeNS" route="down" depart="198" color="1,0,0"/>
	<vehicle id="right_163" type="typeWE" route="right" depart="199" />
	<vehicle id="left_164" type="typeWE" route="left" depart="201" />
	<vehicle id="left_165" type="typeWE" route="left" depart="202" />
	<vehicle id="down_166" type="typeNS" route="down" depart="202" color="1,0,0"/>
	<vehicle id="right_167" type="typeWE" route="right" depart="205" />
	<vehicle id="right_168" type="typeWE" route="right" depart="206" />
	<vehicle id="left_169" type="typeWE" route="left" depart="207" />
	<vehicle id="left_170" type="typeWE" route="left" depart="208" />
	<vehicle id="down_171" type="typeNS" route="down" depart="210" color="1,0,0"/>
	<vehicle id="down_172" type="typeNS" route="down" depart="211" color="1,0,0"/>
	<vehicle id="right_173" type="typeWE" route="right" depart="212" />
	<vehicle id="down_174" type="typeNS" route="down" depart="212" color="1,0,0"/>
	<vehicle id="down_175" type="typeNS" route="down" depart="213" color="1,0,0"/>
	<vehicle id="left_176" type="typeWE" route="left" depart="214" />
	<vehicle id="down_177" type="typeNS" route="down" depart="214" color="1,0,0"/>
	<vehicle id="right_178" type="typeWE" route="right" depart="215" />
	<vehicle id="down_179" type="typeNS" route="down" depart="218" color="1,0,0"/>
	<vehicle id="left_180" type="typeWE" route="left" depart="220" />
	<vehicle id="down_181" type="typeNS" route="down" depart="220" color="1,0,0"/>
	<vehicle id="down_182" type="typeNS" route="down" depart="222" color="1,0,0"/>
	<vehicle id="left_183" type="typeWE" route="left" depart="223" />
	<vehicle id="right_184" type="typeWE" route="right" depart="224" />
	<vehicle id="right_185" type="typeWE" route="right" depart="226" />
	<vehicle id="right_186" type="typeWE" route="right" depart="227" />
	<vehicle id="down_187" type="typeNS" route="down" depart="227" color="1,0,0"/>
	<vehicle id="right_188" type="typeWE" route="right" depart="228" />
	<vehicle id="left_189" type="typeWE" route="left" depart="231" />
	<vehicle id="right_190" type="typeWE" route="right" depart="232" />
	<vehicle id="left_191" type="typeWE" route="left" depart="233" />
	<vehicle id="down_192" type="typeNS" route="down" depart="233" color="1,0,0"/>
	<vehicle id="right_193" type="typeWE" route="right" depart="234" />
	<vehicle id="left_194" type="typeWE" route="left" depart="234" />
	<vehicle id="down_195" type="typeNS" route="down" depart="235" color="1,0,0"/>
	<vehicle id="right_196" type="typeWE" route="right" depart="236" />
	<vehicle id="down_197" type="typeNS" route="down" depart="236" color="1,0,0"/>
	<vehicle id="down_198" type="typeNS" route="down" depart="238" color="1,0,0"/>
	<vehicle id="left_199" type="typeWE" route="left" depart="239" />
	<vehicle id="left_200" type="typeWE" route="left" depart="240" />
	<vehicle id="down_201" type="typeNS" route="down" depart="240" color="1,0,0"/>
	<vehicle id="down_202" type="typeNS" route="down" depart="243" color="1,0,0"/>
	<vehicle id="right_203" type="typeWE" route="right" depart="245" />
	<vehicle id="down_204" type="typeNS" route="down" depart="245" color="1,0,0"/>
	<vehicle id="right_205" type="typeWE" route="right" depart="248" />
	<vehicle id="left_206" type="typeWE" route="left" depart="248" />
	<vehicle id="down_207" type="typeNS" route="down" depart="248" color="1,0,0"/>
	<vehicle id="right_208" type="typeWE" route="right" depart="249" />
	<vehicle id="left_209" type="typeWE" route="left" depart="250" />
	<vehicle id="down_210" type="typeNS" route="down" depart="250" color="1,0,0"/>
	<vehicle id="right_211" type="typeWE" route="right" depart="251" />
	<vehicle id="right_212" type="typeWE" route="right" depart="252" />
	<vehicle id="down_213" type="typeNS" route="down" depart="252" color="1,0,0"/>
	<vehicle id="right_214" type="typeWE" route="right" depart="253" />
	<vehicle id="down_215" type="typeNS" route="down" depart="254" color="1,0,0"/>
	<vehicle id="down_216" type="typeNS" route="down" depart="257" color="1,0,0"/>
	<vehicle id="down_217" type="typeNS" route="down" depart="258" color="1,0,0"/>
	<vehicle id="right_218" type="typeWE" route="right" depart="259" />
	<vehicle id="down_219" type="typeNS" route="down" depart="259" color="1,0,0"/>
	<vehicle id="down_220" type="typeNS" route="down" depart="260" color="1,0,0"/>
	<vehicle id="left_221" type="typeWE" route="left" depart="261" />
	<vehicle id="left_222" type="typeWE" route="left" depart="263" />
	<vehicle id="left_223" type="typeWE" route="left" depart="264" />
	<vehicle id="down_224" type="typeNS" route="down" depart="266" color="1,0,0"/>
	<vehicle id="right_225" type="typeWE" route="right" depart="267" />
	<vehicle id="down_226" type="typeNS" route="down" depart="267" color="1,0,0"/>
	<vehicle id="right_227" type="typeWE" route="right" depart="268" />
	<vehicle id="down_228" type="typeNS" route="down" depart="269" color="1,0,0"/>
	<vehicle id="right_229" type="typeWE" route="right" depart="273" />
	<vehicle id="left_230" type="typeWE" route="left" depart="273" />
	<vehicle id="down_231" type="typeNS" route="down" depart="274" color="1,0,0"/>
	<vehicle id="right_232" type="typeWE" route="right" depart="275" />
	<vehicle id="right_233" type="typeWE" route="right" depart="276" />
	<vehicle id="left_234" type="typeWE" route="left" depart="276" />
	<vehicle id="right_235" type="typeWE" route="right" depart="281" />
	<vehicle id="down_236" type="typeNS" route="down" depart="281" color="1,0,0"/>
	<vehicle id="right_237" type="typeWE" route="right" depart="284" />
	<vehicle id="left_238" type="typeWE" route="left" depart="287" />
	<vehicle id="down_239" type="typeNS" route="down" depart="288" color="1,0,0"/>
	<vehicle id="left_240" type="typeWE" route="left" depart="292" />
	<vehicle id="down_241" type="typeNS" route="down" depart="294" color="1,0,0"/>
	<vehicle id="left_242" type="typeWE" route="left" depart="295" />
	<vehicle id="down_243" type="typeNS" route="down" depart="295" color="1,0,0"/>
	<vehicle id="right_244" type="typeWE" route="right" depart="298" />
	<vehicle id="down_245" type="typeNS" route="down" depart="298" color="1,0,0"/>
	<vehicle id="left_246" type="typeWE" route="left" depart="300" />
	<vehicle id="left_247" type="typeWE" route="left" depart="301" />
	<vehicle id="right_248" type="typeWE" route="right" depart="303" />
	<vehicle id="right_249" type="typeWE" route="right" depart="305" />
	<vehicle id="down_250" type="typeNS" route="down" depart="305" color="1,0,0"/>
	<vehicle id="left_251" type="typeWE" route="left" depart="308" />
	<vehicle id="down_252" type="typeNS" route="down" depart="308" color="1,0,0"/>
	<vehicle id="right_253" type="typeWE" route="right" depart="310" />
	<vehicle id="right_254" type="typeWE" route="right" depart="312" />
	<vehicle id="left_255" type="typeWE" route="left" depart="312" />
	<vehicle id="left_256" type="typeWE" route="left" depart="314" />
	<vehicle id="down_257" type="typeNS" route="down" depart="314" color="1,0,0"/>
	<vehicle id="right_258" type="typeWE" route="right" depart="318" />
	<vehicle id="right_259" type="typeWE" route="right" depart="319" />
	<vehicle id="left_260" type="typeWE" route="left" depart="319" />
	<vehicle id="right_261" type="typeWE" route="right" depart="323" />
	<vehicle id="right_262" type="typeWE" route="right" depart="324" />
	<vehicle id="right_263" type="typeWE" route="right" depart="326" />
	<vehicle id="right_264" type="typeWE" route="right" depart="328" />
	<vehicle id="down_265" type="typeNS" route="down" depart="328" color="1,0,0"/>
	<vehicle id="left_266" type="typeWE" route="left" depart="329" />
	<vehicle id="right_267" type="typeWE" route="right" depart="332" />
	<vehicle id="left_268" type="typeWE" route="left" depart="333" />
	<vehicle id="right_269" type="typeWE" route="right" depart="334" />
	<vehicle id="down_270" type="typeNS" route="down" depart="334" color="1,0,0"/>
	<vehicle id="right_271" type="typeWE" route="right" depart="335" />
	<vehicle id="left_272" type="typeWE" route="left" depart="336" />
	<vehicle id="left_273" type="typeWE" route="left" depart="337" />
	<vehicle id="right_274" type="typeWE" route="right" depart="339" />
	<vehicle id="down_275" type="typeNS" route="down" depart="341" color="1,0,0"/>
	<vehicle id="right_276" type="typeWE" route="right" depart="342" />
	<vehicle id="left_277" type="typeWE" route="left" depart="343" />
	<vehicle id="left_278" type="typeWE" route="left" depart="344" />
	<vehicle id="down_279" type="typeNS" route="down" depart="344" color="1,0,0"/>
	<vehicle id="right_280" type="typeWE" route="right" depart="345" />
	<vehicle id="left_281" type="typeWE" route="left" depart="345" />
	<vehicle id="down_282" type="typeNS" route="down" depart="345" color="1,0,0"/>
	<vehicle id="down_283" type="typeNS" route="down" depart="346" color="1,0,0"/>
	<vehicle id="down_284" type="typeNS" route="down" depart="348" color="1,0,0"/>
	<vehicle id="right_285" type="typeWE" route="right" depart="350" />
	<vehicle id="left_286" type="typeWE" route="left" depart="350" />
	<vehicle id="down_287" type="typeNS" route="down" depart="350" color="1,0,0"/>
	<vehicle id="right_288" type="typeWE" route="right" depart="352" />
	<vehicle id="right_289" type="typeWE" route="right" depart="353" />
	<vehicle id="down_290" type="typeNS" route="down" depart="353" color="1,0,0"/>
	<vehicle id="down_291" type="typeNS" route="down" depart="354" color="1,0,0"/>
	<vehicle id="down_292" type="typeNS" route="down" depart="356" color="1,0,0"/>
	<vehicle id="right_293" type="typeWE" route="right" depart="358" />
	<vehicle id="down_294" type="typeNS" route="down" depart="358" color="1,0,0"/>
	<vehicle id="right_295" type="typeWE" route="right" depart="362" />
	<vehicle id="down_296" type="typeNS" route="down" depart="366" color="1,0,0"/>
	<vehicle id="right_297" type="typeWE" route="right" depart="367" />
	<vehicle id="left_298" type="typeWE" route="left" depart="367" />
	<vehicle id="down_299" type="typeNS" route="down" depart="367" color="1,0,0"/>
	<vehicle id="right_300" type="typeWE" route="right" depart="368" />
	<vehicle id="down_301" type="typeNS" route="down" depart="368" color="1,0,0"/>
	<vehicle id="right_302" type="typeWE" route="right" depart="369" />
	<vehicle id="right_303" type="typeWE" route="right" depart="370" />
	<vehicle id="down_304" type="typeNS" route="down" depart="371" color="1,0,0"/>
	<vehicle id="down_305" type="typeNS" route="down" depart="372" color="1,0,0"/>
	<vehicle id="left_306" type="typeWE" route="left" depart="373" />
	<vehicle id="down_307" type="typeNS" route="down" depart="373" color="1,0,0"/>
	<vehicle id="down_308" type="typeNS" route="down" depart="374" color="1,0,0"/>
	<vehicle id="down_309" type="typeNS" route="down" depart="376" color="1,0,0"/>
	<vehicle id="left_310" type="typeWE" route="left" depart="378" />
	<vehicle id="down_311" type="typeNS" route="down" depart="380" color="1,0,0"/>
	<vehicle id="left_312" type="typeWE" route="left" depart="381" />
	<vehicle id="down_313" type="typeNS" route="down" depart="381" color="1,0,0"/>
	<vehicle id="down_314" type="typeNS" route="down" depart="383" color="1,0,0"/>
	<vehicle id="left_315" type="typeWE" route="left" depart="387" />
	<vehicle id="left_316" type="typeWE" route="left" depart="389" />
	<vehicle id="left_317" type="typeWE" route="left" depart="393" />
	<vehicle id="down_318" type="typeNS" route="down" depart="393" color="1,0,0"/>
	<vehicle id="down_319" type="typeNS" route="down" depart="395" color="1,0,0"/>
	<vehicle id="right_320" type="typeWE" route="right" depart="399" />
	<vehicle id="down_321" type="typeNS" route="down" depart="400" color="1,0,0"/>
	<vehicle id="left_322" type="typeWE" route="left" depart="401" />
	<vehicle id="down_323" type="typeNS" route="down" depart="401" color="1,0,0"/>
	<vehicle id="left_324" type="typeWE" route="left" depart="403" />
	<vehicle id="down_325" type="typeNS" route="down" depart="404" color="1,0,0"/>
	<vehicle id="left_326" type="typeWE" route="left" depart="405" />
	<vehicle id="left_327" type="typeWE" route="left" depart="410" />
	<vehicle id="down_328" type="typeNS" route="down" depart="410" color="1,0,0"/>
	<vehicle id="left_329" type="typeWE" route="left" depart="413" />
	<vehicle id="down_330" type="typeNS" route="down" depart="414" color="1,0,0"/>
	<vehicle id="left_331" type="typeWE" route="left" depart="416" />
	<vehicle id="right_332" type="typeWE" route="right" depart="418" />
	<vehicle id="left_333" type="typeWE" route="left" depart="418" />
	<vehicle id="right_334" type="typeWE" route="right" depart="422" />
	<vehicle id="down_335" type="typeNS" route="down" depart="422" color="1,0,0"/>
	<vehicle id="left_336" type="typeWE" route="left" depart="423" />
	<vehicle id="right_337" type="typeWE" route="right" depart="424" />
	<vehicle id="left_338" type="typeWE" route="left" depart="424" />
	<vehicle id="left_339" type="typeWE" route="left" depart="427" />
	<vehicle id="down_340" type="typeNS" route="down" depart="427" color="1,0,0"/>
	<vehicle id="down_341" type="typeNS" route="down" depart="429" color="1,0,0"/>
	<vehicle id="left_342" type="typeWE" route="left" depart="432" />
	<vehicle id="down_343" type="typeNS" route="down" depart="433" color="1,0,0"/>
	<vehicle id="left_344" type="typeWE" route="left" depart="434" />
	<vehicle id="down_345" type="typeNS" route="down" depart="434" color="1,0,0"/>
	<vehicle id="left_346" type="typeWE" route="left" depart="436" />
	<vehicle id="left_347" type="typeWE" route="left" depart="438" />
	<vehicle id="down_348" type="typeNS" route="down" depart="438" color="1,0,0"/>
	<vehicle id="right_349" type="typeWE" route="right" depart="439" />
	<vehicle id="left_350" type="typeWE" route="left" depart="439" />
	<vehicle id="down_351" type="typeNS" route="down" depart="442" color="1,0,0"/>
	<vehicle id="right_352" type="typeWE" route="right" depart="446" />
	<vehicle id="right_353" type="typeWE" route="right" depart="447" />
	<vehicle id="down_354" type="typeNS" route="down" depart="447" color="1,0,0"/>
	<vehicle id="right_355" type="typeWE" route="right" depart="448" />
	<vehicle id="left_356" type="typeWE" route="left" depart="448" />
	<vehicle id="right_357" type="typeWE" route="right" depart="449" />
	<vehicle id="down_358" type="typeNS" route="down" depart="449" color="1,0,0"/>
	<vehicle id="right_359" type="typeWE" route="right" depart="450" />
	<vehicle id="left_360" type="typeWE" route="left" depart="451" />
	<vehicle id="down_361" type="typeNS" route="down" depart="451" color="1,0,0"/>
	<vehicle id="right_362" type="typeWE" route="right" depart="453" />
	<vehicle id="down_363" type="typeNS" route="down" depart="456" color="1,0,0"/>
	<vehicle id="down_364" type="typeNS" route="down" depart="457" color="1,0,0"/>
	<vehicle id="right_365" type="typeWE" route="right" depart="458" />
	<vehicle id="down_366" type="typeNS" route="down" depart="459" color="1,0,0"/>
	<vehicle id="right_367" type="typeWE" route="right" depart="461" />
	<vehicle id="left_368" type="typeWE" route="left" depart="461" />
	<vehicle id="right_369" type="typeWE" route="right" depart="462" />
	<vehicle id="left_370" type="typeWE" route="left" depart="463" />
	<vehicle id="down_371" type="typeNS" route="down" depart="463" color="1,0,0"/>
	<vehicle id="down_372" type="typeNS" route="down" depart="465" color="1,0,0"/>
	<vehicle id="right_373" type="typeWE" route="right" depart="466" />
	<vehicle id="down_374" type="typeNS" route="down" depart="466" color="1,0,0"/>
	<vehicle id="down_375" type="typeNS" route="down" depart="467" color="1,0,0"/>
	<vehicle id="right_376" type="typeWE" route="right" depart="471" />
	<vehicle id="left_377" type="typeWE" route="left" depart="472" />
	<vehicle id="left_378" type="typeWE" route="left" depart="473" />
	<vehicle id="down_379" type="typeNS" route="down" depart="475" color="1,0,0"/>
	<vehicle id="right_380" type="typeWE" route="right" depart="476" />
	<vehicle id="left_381" type="typeWE" route="left" depart="477" />
	<vehicle id="down_382" type="typeNS" route="down" depart="477" color="1,0,0"/>
	<vehicle id="right_383" type="typeWE" route="right" depart="478" />
	<vehicle id="down_384" type="typeNS" route="down" depart="478" color="1,0,0"/>
	<vehicle id="down_385" type="typeNS" route="down" depart="481" color="1,0,0"/>
	<vehicle id="down_386" type="typeNS" route="down" depart="482" color="1,0,0"/>
	<vehicle id="down_387" type="typeNS" route="down" depart="483" color="1,0,0"/>
	<vehicle id="right_388" type="typeWE" route="right" depart="484" />
	<vehicle id="down_389" type="typeNS" route="down" depart="484" color="1,0,0"/>
	<vehicle id="left_390" type="typeWE" route="left" depart="485" />
	<vehicle id="right_391" type="typeWE" route="right" depart="488" />
	<vehicle id="left_392" type="typeWE" route="left" depart="488" />
	<vehicle id="down_393" type="typeNS" route="down" depart="488" color="1,0,0"/>
	<vehicle id="left_394" type="typeWE" route="left" depart="489" />
	<vehicle id="down_395" type="typeNS" route="down" depart="489" color="1,0,0"/>
	<vehicle id="down_396" type="typeNS" route="down" depart="490" color="1,0,0"/>
	<vehicle id="right_397" type="typeWE" route="right" depart="493" />
	<vehicle id="right_398" type="typeWE" route="right" depart="494" />
	<vehicle id="left_399" type="typeWE" route="left" depart="494" />
	<vehicle id="left_400" type="typeWE" route="left" depart="495" />
	<vehicle id="down_401" type="typeNS" route="down" depart="499" color="1,0,0"/>
	<vehicle id="right_402" type="typeWE" route="right" depart="500" />
	<vehicle id="down_403" type="typeNS" route="down" depart="500" color="1,0,0"/>
	<vehicle id="right_404" type="typeWE" route="right" depart="501" />
	<vehicle id="left_405" type="typeWE" route="left" depart="501" />
	<vehicle id="down_406" type="typeNS" route="down" depart="501" color="1,0,0"/>
	<vehicle id="left_407" type="typeWE" route="left" depart="502" />